*SPEF "IEEE 1481-1998"
*DESIGN "usb_phy"
*DATE "Tue Feb 21 19:12:35 2017"
*VENDOR "Cadence Design Systems, Inc."
*PROGRAM "Innovus"
*VERSION "15.20-p005_1"
*DESIGN_FLOW "COUPLING C" "PIN_CAP NONE" "NAME_SCOPE LOCAL"
*DIVIDER /
*DELIMITER :
*BUS_DELIMITER []
*T_UNIT 1 NS
*C_UNIT 1 PF
*R_UNIT 1 OHM
*L_UNIT 1 HENRY

// MMMC spef file for corner 'Cmax'

*NAME_MAP

*1 FE_OFN1_fs_ce
*2 FE_DBTN0_i_tx_phy_state_1_
*3 DataOut_i[7]
*4 DataOut_i[6]
*5 DataOut_i[5]
*6 DataOut_i[4]
*7 DataOut_i[3]
*8 DataOut_i[2]
*9 DataOut_i[1]
*10 DataOut_i[0]
*11 DataIn_o[7]
*12 DataIn_o[6]
*13 DataIn_o[5]
*14 DataIn_o[4]
*15 DataIn_o[3]
*16 DataIn_o[2]
*17 DataIn_o[1]
*18 DataIn_o[0]
*19 LineState_o[1]
*20 LineState_o[0]
*21 clk
*22 rst
*23 phy_tx_mode
*24 rxd
*25 rxdp
*26 rxdn
*27 TxValid_i
*28 usb_rst
*29 txdp
*30 txdn
*31 txoe
*32 TxReady_o
*33 RxValid_o
*34 RxActive_o
*35 RxError_o
*36 fs_ce
*37 N26
*38 i_tx_phy_txoe_r2
*39 i_tx_phy_append_eop_sync4
*40 i_tx_phy_append_eop_sync3
*41 i_tx_phy_append_eop_sync1
*42 i_tx_phy_append_eop
*43 i_tx_phy_append_eop_sync2
*44 i_tx_phy_txoe_r1
*45 i_tx_phy_sd_nrzi_o
*46 i_tx_phy_sd_bs_o
*47 i_tx_phy_sft_done_r
*48 i_tx_phy_sft_done
*49 i_tx_phy_N88
*50 i_tx_phy_N87
*51 i_tx_phy_sd_raw_o
*52 i_tx_phy_data_done
*53 i_tx_phy_tx_ip_sync
*54 i_tx_phy_tx_ip
*55 i_tx_phy_ld_data
*56 i_tx_phy_N18
*57 i_rx_phy_N166
*58 i_rx_phy_se0_r
*59 i_rx_phy_N165
*60 i_rx_phy_rx_valid1
*61 i_rx_phy_N136
*62 i_rx_phy_shift_en
*63 i_rx_phy_sd_nrzi
*64 i_rx_phy_sd_r
*65 i_rx_phy_rx_valid_r
*66 i_rx_phy_fs_ce_r2
*67 i_rx_phy_fs_ce_r1
*68 i_rx_phy_fs_ce_d
*69 i_rx_phy_N32
*70 i_rx_phy_N31
*71 i_rx_phy_rxd_r
*72 i_rx_phy_se0_s
*73 i_rx_phy_rxdn_s
*74 i_rx_phy_N29
*75 i_rx_phy_rxdn_s_r
*76 i_rx_phy_N28
*77 i_rx_phy_rxdn_s0
*78 i_rx_phy_rxdp_s
*79 i_rx_phy_N27
*80 i_rx_phy_rxdp_s_r
*81 i_rx_phy_N26
*82 i_rx_phy_rxdp_s0
*83 i_rx_phy_rxd_s
*84 i_rx_phy_rxd_s1
*85 i_rx_phy_rxd_s0
*86 i_rx_phy_N20
*87 i_rx_phy_rx_en
*88 i_rx_phy_byte_err
*89 i_rx_phy_bit_stuff_err
*90 i_rx_phy_sync_err
*91 n86
*92 n87
*93 n88
*94 n89
*95 n90
*96 n91
*97 n92
*98 n93
*99 n94
*100 n95
*101 n96
*102 n97
*103 n98
*104 n99
*105 n100
*106 n101
*107 n102
*108 n103
*109 n104
*110 n105
*111 n106
*112 n107
*113 n108
*114 n109
*115 n110
*116 n111
*117 n112
*118 n113
*119 n114
*120 n115
*121 n116
*122 n117
*123 n118
*124 n119
*125 n120
*126 n121
*127 n122
*128 n123
*129 n124
*130 n125
*131 n126
*132 n127
*133 n128
*134 n129
*135 n130
*136 n131
*137 n132
*138 n133
*139 n134
*140 n135
*141 n136
*142 n137
*143 n138
*144 n139
*145 n140
*146 n141
*147 n142
*148 n143
*149 n144
*150 n145
*151 n146
*152 n147
*153 n326
*154 n327
*155 n328
*156 n329
*157 n331
*158 n332
*159 n333
*160 n334
*161 n335
*162 n336
*163 n337
*164 n338
*165 n339
*166 n340
*167 n341
*168 n342
*169 n343
*170 n344
*171 n345
*172 n346
*173 n347
*174 n348
*175 n349
*176 n350
*177 n352
*178 n353
*179 n354
*180 n355
*181 n356
*182 n357
*183 n358
*184 n359
*185 n360
*186 n361
*187 n362
*188 n363
*189 n364
*190 n365
*191 n366
*192 n367
*193 n368
*194 n369
*195 n370
*196 n371
*197 n372
*198 n373
*199 n374
*200 n375
*201 n376
*202 n377
*203 n378
*204 n379
*205 n380
*206 n381
*207 n382
*208 n383
*209 n384
*210 n385
*211 n386
*212 n387
*213 n388
*214 n389
*215 n390
*216 n391
*217 n392
*218 n393
*219 n394
*220 n395
*221 n396
*222 n397
*223 n398
*224 n399
*225 n400
*226 n401
*227 n402
*228 n403
*229 n404
*230 n405
*231 n406
*232 n407
*233 n408
*234 n409
*235 n410
*236 n411
*237 n412
*238 n413
*239 n414
*240 n415
*241 n416
*242 n417
*243 n418
*244 n419
*245 n420
*246 n421
*247 n422
*248 n423
*249 n424
*250 n425
*251 n426
*252 n427
*253 n428
*254 n429
*255 n430
*256 n431
*257 n432
*258 n433
*259 n434
*260 n435
*261 n436
*262 n437
*263 n438
*264 n439
*265 n440
*266 n441
*267 n442
*268 n443
*269 n444
*270 n445
*271 n446
*272 n447
*273 n448
*274 n449
*275 n450
*276 n451
*277 n452
*278 n453
*279 n454
*280 n455
*281 n456
*282 n457
*283 n458
*284 n459
*285 n460
*286 n461
*287 n462
*288 n463
*289 n464
*290 n465
*291 n466
*292 n467
*293 n468
*294 n469
*295 n470
*296 n471
*297 n472
*298 n473
*299 n474
*300 n475
*301 n476
*302 n477
*303 n478
*304 n479
*305 n480
*306 n481
*307 n482
*308 n483
*309 n484
*310 n485
*311 n486
*312 n487
*313 n488
*314 n489
*315 n490
*316 n491
*317 n492
*318 n493
*319 n494
*320 n495
*321 n496
*322 n497
*323 n498
*324 n499
*325 n500
*326 n501
*327 n503
*328 n504
*329 n505
*330 n506
*331 n507
*332 n508
*333 n509
*334 n510
*335 n511
*336 n512
*337 n513
*338 n514
*339 n515
*340 n516
*341 n517
*342 n518
*343 n519
*344 n520
*345 n521
*346 n522
*347 n523
*348 n524
*349 n525
*350 n526
*351 n527
*352 n528
*353 n529
*354 n530
*355 n531
*356 n532
*357 n533
*358 n534
*359 n535
*360 n536
*361 n537
*362 n538
*363 n539
*364 n540
*365 n541
*366 n542
*367 n543
*368 n544
*369 n545
*370 n546
*371 n547
*372 n548
*373 n549
*374 n550
*375 n551
*376 n552
*377 n553
*378 n554
*379 n555
*380 n556
*381 n557
*382 n558
*383 n559
*384 n560
*385 n561
*386 n562
*387 n563
*388 n564
*389 n565
*390 n566
*391 n567
*392 n568
*393 n569
*394 n570
*395 n571
*396 n572
*397 n573
*398 n574
*399 n575
*400 n576
*401 n577
*402 n578
*403 n579
*404 n580
*405 n581
*406 n582
*407 n583
*408 n584
*409 n585
*410 n586
*411 n587
*412 n588
*413 n589
*414 n590
*415 n591
*416 n592
*417 rst_cnt[4]
*418 rst_cnt[3]
*419 rst_cnt[2]
*420 rst_cnt[1]
*421 rst_cnt[0]
*422 i_tx_phy_state[2]
*423 i_tx_phy_state[1]
*424 i_tx_phy_state[0]
*425 i_tx_phy_one_cnt[2]
*426 i_tx_phy_one_cnt[1]
*427 i_tx_phy_one_cnt[0]
*428 i_tx_phy_hold_reg[7]
*429 i_tx_phy_hold_reg[6]
*430 i_tx_phy_hold_reg[5]
*431 i_tx_phy_hold_reg[4]
*432 i_tx_phy_hold_reg[3]
*433 i_tx_phy_hold_reg[2]
*434 i_tx_phy_hold_reg[1]
*435 i_tx_phy_hold_reg[0]
*436 i_tx_phy_hold_reg_d[7]
*437 i_tx_phy_hold_reg_d[6]
*438 i_tx_phy_hold_reg_d[5]
*439 i_tx_phy_hold_reg_d[4]
*440 i_tx_phy_hold_reg_d[3]
*441 i_tx_phy_hold_reg_d[2]
*442 i_tx_phy_hold_reg_d[1]
*443 i_tx_phy_hold_reg_d[0]
*444 i_tx_phy_bit_cnt[2]
*445 i_tx_phy_bit_cnt[1]
*446 i_tx_phy_bit_cnt[0]
*447 i_rx_phy_bit_cnt[2]
*448 i_rx_phy_bit_cnt[1]
*449 i_rx_phy_bit_cnt[0]
*450 i_rx_phy_one_cnt[2]
*451 i_rx_phy_one_cnt[1]
*452 i_rx_phy_one_cnt[0]
*453 i_rx_phy_fs_state[2]
*454 i_rx_phy_fs_state[1]
*455 i_rx_phy_fs_state[0]
*456 i_rx_phy_dpll_state[1]
*457 i_rx_phy_dpll_state[0]
*458 FE_OFC1_fs_ce
*459 FE_DBTC0_i_tx_phy_state_1_
*460 i_rx_phy_rxdn_s0_reg
*461 i_rx_phy_rxdn_s1_reg
*462 i_rx_phy_rxdn_s_r_reg
*463 i_rx_phy_rxdn_s_reg
*464 i_rx_phy_rxdp_s0_reg
*465 i_rx_phy_rxdp_s1_reg
*466 i_rx_phy_rxdp_s_r_reg
*467 i_rx_phy_rxdp_s_reg
*468 i_rx_phy_se0_r_reg
*469 i_rx_phy_rxd_s0_reg
*470 i_rx_phy_rxd_s1_reg
*471 i_rx_phy_rxd_s_reg
*472 i_rx_phy_rxd_r_reg
*473 i_rx_phy_rx_en_reg
*474 i_rx_phy_dpll_state_reg_1_
*475 i_rx_phy_fs_ce_r1_reg
*476 i_rx_phy_fs_ce_r2_reg
*477 i_rx_phy_fs_ce_reg
*478 i_rx_phy_sd_r_reg
*479 i_rx_phy_se0_s_reg
*480 rst_cnt_reg_0_
*481 rst_cnt_reg_4_
*482 rst_cnt_reg_3_
*483 rst_cnt_reg_2_
*484 rst_cnt_reg_1_
*485 usb_rst_reg
*486 i_tx_phy_append_eop_sync1_reg
*487 i_tx_phy_append_eop_sync2_reg
*488 i_tx_phy_append_eop_sync3_reg
*489 i_tx_phy_append_eop_sync4_reg
*490 i_tx_phy_tx_ip_reg
*491 i_tx_phy_tx_ip_sync_reg
*492 i_tx_phy_txoe_r1_reg
*493 i_tx_phy_txoe_r2_reg
*494 i_tx_phy_txoe_reg
*495 i_tx_phy_data_done_reg
*496 i_tx_phy_state_reg_0_
*497 i_tx_phy_state_reg_2_
*498 i_tx_phy_state_reg_1_
*499 i_tx_phy_ld_data_reg
*500 i_tx_phy_hold_reg_reg_7_
*501 i_tx_phy_hold_reg_d_reg_7_
*502 i_tx_phy_hold_reg_reg_6_
*503 i_tx_phy_hold_reg_d_reg_6_
*504 i_tx_phy_hold_reg_reg_5_
*505 i_tx_phy_hold_reg_d_reg_5_
*506 i_tx_phy_hold_reg_reg_4_
*507 i_tx_phy_hold_reg_d_reg_4_
*508 i_tx_phy_hold_reg_reg_3_
*509 i_tx_phy_hold_reg_d_reg_3_
*510 i_tx_phy_hold_reg_reg_2_
*511 i_tx_phy_hold_reg_d_reg_2_
*512 i_tx_phy_hold_reg_reg_1_
*513 i_tx_phy_hold_reg_d_reg_1_
*514 i_tx_phy_hold_reg_reg_0_
*515 i_tx_phy_hold_reg_d_reg_0_
*516 i_tx_phy_sd_raw_o_reg
*517 i_tx_phy_one_cnt_reg_0_
*518 i_tx_phy_one_cnt_reg_1_
*519 i_tx_phy_one_cnt_reg_2_
*520 i_tx_phy_bit_cnt_reg_0_
*521 i_tx_phy_bit_cnt_reg_1_
*522 i_tx_phy_bit_cnt_reg_2_
*523 i_tx_phy_sft_done_r_reg
*524 i_tx_phy_TxReady_o_reg
*525 i_tx_phy_append_eop_reg
*526 i_tx_phy_sd_bs_o_reg
*527 i_tx_phy_sd_nrzi_o_reg
*528 i_tx_phy_txdn_reg
*529 i_tx_phy_txdp_reg
*530 i_rx_phy_dpll_state_reg_0_
*531 i_rx_phy_fs_state_reg_0_
*532 i_rx_phy_fs_state_reg_2_
*533 i_rx_phy_fs_state_reg_1_
*534 i_rx_phy_rx_active_reg
*535 i_rx_phy_shift_en_reg
*536 i_rx_phy_sd_nrzi_reg
*537 i_rx_phy_one_cnt_reg_0_
*538 i_rx_phy_one_cnt_reg_1_
*539 i_rx_phy_one_cnt_reg_2_
*540 i_rx_phy_bit_stuff_err_reg
*541 i_rx_phy_hold_reg_reg_7_
*542 i_rx_phy_hold_reg_reg_6_
*543 i_rx_phy_hold_reg_reg_5_
*544 i_rx_phy_hold_reg_reg_4_
*545 i_rx_phy_hold_reg_reg_3_
*546 i_rx_phy_hold_reg_reg_2_
*547 i_rx_phy_hold_reg_reg_1_
*548 i_rx_phy_hold_reg_reg_0_
*549 i_rx_phy_bit_cnt_reg_0_
*550 i_rx_phy_bit_cnt_reg_1_
*551 i_rx_phy_bit_cnt_reg_2_
*552 i_rx_phy_byte_err_reg
*553 i_rx_phy_rx_valid1_reg
*554 i_rx_phy_rx_valid_reg
*555 i_rx_phy_rx_valid_r_reg
*556 i_rx_phy_sync_err_reg
*557 i_tx_phy_sft_done_reg
*558 U407
*559 U408
*560 U409
*561 U410
*562 U411
*563 U412
*564 U413
*565 U414
*566 U415
*567 U416
*568 U417
*569 U418
*570 U419
*571 U420
*572 U421
*573 U422
*574 U423
*575 U424
*576 U425
*577 U426
*578 U427
*579 U428
*580 U429
*581 U430
*582 U431
*583 U432
*584 U433
*585 U434
*586 U435
*587 U436
*588 U437
*589 U438
*590 U439
*591 U440
*592 U441
*593 U442
*594 U443
*595 U444
*596 U445
*597 U446
*598 U447
*599 U448
*600 U449
*601 U450
*602 U451
*603 U452
*604 U453
*605 U454
*606 U455
*607 U456
*608 U457
*609 U458
*610 U459
*611 U460
*612 U461
*613 U462
*614 U463
*615 U465
*616 U466
*617 U468
*618 U469
*619 U470
*620 U471
*621 U472
*622 U473
*623 U474
*624 U475
*625 U476
*626 U477
*627 U478
*628 U479
*629 U480
*630 U481
*631 U482
*632 U483
*633 U484
*634 U485
*635 U486
*636 U487
*637 U489
*638 U490
*639 U491
*640 U492
*641 U493
*642 U494
*643 U495
*644 U496
*645 U497
*646 U498
*647 U499
*648 U500
*649 U501
*650 U502
*651 U503
*652 U504
*653 U505
*654 U506
*655 U507
*656 U508
*657 U509
*658 U510
*659 U511
*660 U512
*661 U513
*662 U514
*663 U515
*664 U516
*665 U517
*666 U518
*667 U519
*668 U520
*669 U521
*670 U522
*671 U523
*672 U524
*673 U525
*674 U526
*675 U527
*676 U528
*677 U529
*678 U530
*679 U531
*680 U532
*681 U533
*682 U534
*683 U535
*684 U536
*685 U537
*686 U538
*687 U539
*688 U540
*689 U541
*690 U542
*691 U543
*692 U544
*693 U545
*694 U546
*695 U547
*696 U548
*697 U549
*698 U550
*699 U551
*700 U552
*701 U553
*702 U554
*703 U555
*704 U556
*705 U557
*706 U558
*707 U559
*708 U560
*709 U561
*710 U562
*711 U563
*712 U564
*713 U565
*714 U566
*715 U567
*716 U568
*717 U569
*718 U570
*719 U571
*720 U572
*721 U573
*722 U574
*723 U575
*724 U576
*725 U577
*726 U578
*727 U579
*728 U580
*729 U581
*730 U582
*731 U583
*732 U584
*733 U585
*734 U586
*735 U587
*736 U588
*737 U589
*738 U590
*739 U591
*740 U592
*741 U593
*742 U594
*743 U595
*744 U596
*745 U597
*746 U598
*747 U599
*748 U600
*749 U601
*750 U602
*751 U603
*752 U604
*753 U605
*754 U606
*755 U607
*756 U608
*757 U609
*758 U610
*759 U611
*760 U612
*761 U613
*762 U614
*763 U615
*764 U616
*765 U617
*766 U618
*767 U619
*768 U620
*769 U621
*770 U622
*771 U623
*772 U624
*773 U625
*774 U626
*775 U627
*776 U628
*777 U629
*778 U630
*779 U631
*780 U632
*781 U633
*782 U634
*783 U635
*784 U636
*785 U637
*786 U638
*787 U639
*788 U640
*789 U641
*790 U642
*791 U643
*792 U644
*793 U645
*794 U646
*795 U647
*796 U648
*797 U649
*798 U650
*799 U651
*800 U652
*801 U653
*802 U654
*803 U655
*804 U656
*805 U657
*806 U658
*807 U659
*808 U660
*809 U661
*810 U662
*811 U663
*812 U664
*813 U665
*814 U666
*815 U667
*816 U668
*817 U669
*818 U670
*819 U671
*820 U672
*821 U673
*822 U674
*823 U675
*824 U676
*825 U677
*826 U678
*827 U679
*828 U680
*829 U681
*830 U682
*831 U683
*832 U684
*833 U685
*834 U686
*835 U687
*836 U688
*837 U689
*838 U690
*839 U691
*840 U692
*841 U693
*842 U694
*843 U695
*844 U696
*845 U697
*846 U698
*847 U699
*848 U700
*849 U701
*850 U702
*851 U703
*852 U704
*853 U705
*854 U706
*855 U707
*856 U708
*857 U709
*858 U710
*859 U711
*860 U712
*861 U713
*862 U714
*863 U715
*864 U716
*865 U717
*866 U718
*867 U719
*868 U720
*869 U721
*870 U722
*871 U723
*872 U724
*873 U725
*874 U726
*875 U727
*876 U728
*877 U729
*878 U730
*879 U731
*880 U732
*881 U733
*882 U734
*883 U735
*884 U736
*885 U737
*886 U738
*887 U739
*888 U740
*889 U741
*890 U742
*891 U743
*892 U744
*893 U745
*894 U746
*895 U747
*896 U748
*897 U749
*898 U750
*899 U751


*PORTS

*21 I *C 56.56 28.28
*22 I *C 25.41 0
*23 I *C 35.77 0
*28 O *C 30.59 0
*29 O *C 41.09 0
*30 O *C 34.93 0
*31 O *C 26.25 0
*24 I *C 23.87 55.44
*25 I *C 28.63 55.44
*26 I *C 28.63 55.44
*3 I *C 56.56 24.5
*4 I *C 56.56 30.8
*5 I *C 38.99 55.44
*6 I *C 56.56 35.84
*7 I *C 56.56 35.98
*8 I *C 56.56 34.72
*9 I *C 56.56 30.8
*10 I *C 56.56 28.28
*27 I *C 56.56 27.02
*32 O *C 56.56 26.74
*33 O *C 0 31.08
*34 O *C 0 26.6
*35 O *C 0 31.22
*11 O *C 38.71 55.44
*12 O *C 56.56 39.2
*13 O *C 56.56 35.7
*14 O *C 56.56 41.16
*15 O *C 56.56 41.72
*16 O *C 45.15 55.44
*17 O *C 38.99 55.44
*18 O *C 39.27 55.44
*19 O *C 28.07 0
*20 O *C 0 27.58


*D_NET *69 0.0001351

*CONN
*I *695:o O *C 13.23 16.66 *L 0 *D ao12s01
*I *474:d I *C 13.23 15.82 *L 0.001 *D ms00f80

*CAP
1 *695:o 6.755e-05
2 *474:d 6.755e-05

*RES
1 *474:d *695:o 3.75399
*END

*D_NET *79 0.0001351

*CONN
*I *728:o O *C 23.31 27.44 *L 0 *D in01s01
*I *467:d I *C 23.31 28.28 *L 0.001 *D ms00f80

*CAP
1 *728:o 6.755e-05
2 *467:d 6.755e-05

*RES
1 *728:o *467:d 3.75399
*END

*D_NET *105 0.0001351

*CONN
*I *604:o O *C 14.21 39.34 *L 0 *D oa22m01
*I *538:d I *C 14.21 38.5 *L 0.001 *D ms00f80

*CAP
1 *604:o 6.755e-05
2 *538:d 6.755e-05

*RES
1 *538:d *604:o 3.75399
*END

*D_NET *124 0.0001351

*CONN
*I *878:o O *C 43.61 27.44 *L 0 *D in01s01
*I *514:d I *C 43.61 28.28 *L 0.001 *D ms00f80

*CAP
1 *878:o 6.755e-05
2 *514:d 6.755e-05

*RES
1 *878:o *514:d 3.75399
*END

*D_NET *130 0.0001351

*CONN
*I *876:o O *C 40.67 30.52 *L 0 *D in01s01
*I *502:d I *C 40.67 29.68 *L 0.001 *D ms00f80

*CAP
1 *876:o 6.755e-05
2 *502:d 6.755e-05

*RES
1 *502:d *876:o 3.75399
*END

*D_NET *138 0.0001351

*CONN
*I *684:o O *C 30.87 25.48 *L 0 *D oa12s01
*I *492:d I *C 30.87 24.64 *L 0.001 *D ms00f80

*CAP
1 *684:o 6.755e-05
2 *492:d 6.755e-05

*RES
1 *492:d *684:o 3.75399
*END

*D_NET *140 0.0001351

*CONN
*I *830:o O *C 37.03 22.4 *L 0 *D no02s01
*I *490:d I *C 37.03 23.24 *L 0.001 *D ms00f80

*CAP
1 *830:o 6.755e-05
2 *490:d 6.755e-05

*RES
1 *830:o *490:d 3.75399
*END

*D_NET *150 0.0001351

*CONN
*I *749:o O *C 19.53 20.44 *L 0 *D in01s01
*I *479:d I *C 19.53 19.6 *L 0.001 *D ms00f80

*CAP
1 *749:o 6.755e-05
2 *479:d 6.755e-05

*RES
1 *479:d *749:o 3.75399
*END

*D_NET *393 0.0001351

*CONN
*I *597:o O *C 18.97 14.14 *L 0 *D in01m01
*I *563:a I *C 18.97 13.3 *L 0.001 *D ao22f01

*CAP
1 *597:o 6.755e-05
2 *563:a 6.755e-05

*RES
1 *563:a *597:o 3.75399
*END

*D_NET *147 0.00018182

*CONN
*I *888:o O *C 18.41 11.62 *L 0 *D in01s01
*I *482:d I *C 17.99 10.78 *L 0.001 *D ms00f80

*CAP
1 *888:o 6.755e-05
2 *482:d 2.336e-05
3 *147:2 9.091e-05

*RES
1 *482:d *147:2 1.15815
2 *147:2 *888:o 3.75399
*END

*D_NET *146 0.00015066

*CONN
*I *619:o O *C 24.57 11.62 *L 0 *D oa22f01
*I *483:d I *C 24.71 10.78 *L 0.001 *D ms00f80

*CAP
1 *619:o 6.755e-05
2 *483:d 7.78e-06
3 *146:2 7.533e-05

*RES
1 *146:2 *483:d 0.386049
2 *146:2 *619:o 3.75399
*END

*D_NET *114 0.00019738

*CONN
*I *847:o O *C 31.85 11.62 *L 0 *D in01s01
*I *528:d I *C 32.41 10.78 *L 0.001 *D ms00f80

*CAP
1 *847:o 6.755e-05
2 *528:d 3.114e-05
3 *114:2 9.869e-05

*RES
1 *114:2 *528:d 1.5442
2 *114:2 *847:o 3.75399
*END

*D_NET *113 0.00018182

*CONN
*I *747:o O *C 37.03 11.62 *L 0 *D na02s01
*I *529:d I *C 36.61 10.78 *L 0.001 *D ms00f80

*CAP
1 *747:o 6.755e-05
2 *529:d 2.336e-05
3 *113:2 9.091e-05

*RES
1 *529:d *113:2 1.15815
2 *113:2 *747:o 3.75399
*END

*D_NET *67 0.00022534

*CONN
*I *476:d I *C 14.35 11.9 *L 0.001 *D ms00f80
*I *475:o O *C 15.05 11.06 *L 0 *D ms00f80

*CAP
1 *476:d 6.755e-05
2 *475:o 4.512e-05
3 *67:2 0.00011267

*RES
1 *67:2 *476:d 3.75399
2 *67:2 *475:o 1.9502
*END

*D_NET *145 0.00016624

*CONN
*I *849:o O *C 29.47 11.62 *L 0 *D in01s01
*I *484:d I *C 29.75 10.78 *L 0.001 *D ms00f80

*CAP
1 *849:o 2.252e-05
2 *484:d 7.78e-06
3 *145:2 3.03e-05
4 *145:3 5.282e-05
5 *145:4 5.282e-05

*RES
1 *145:4 *484:d 0.386049
2 *145:4 *145:3 2.50266
3 *145:2 *145:3 0.386049
4 *145:2 *849:o 1.25133
*END

*D_NET *352 0.0002666

*CONN
*I *861:o O *C 26.81 11.06 *L 0 *D in01s01
*I *591:c I *C 27.79 12.04 *L 0.002 *D ao12f02

*CAP
1 *861:o 4.504e-05
2 *591:c 3.378e-05
3 *352:2 9.952e-05
4 *352:3 8.826e-05

*RES
1 *352:3 *591:c 1.877
2 *352:2 *352:3 2.70234
3 *861:o *352:2 2.50266
*END

*D_NET *331 3.112e-05

*CONN
*I *847:a I *C 32.13 11.9 *L 0.001 *D in01s01
*I *846:o O *C 32.41 11.9 *L 0 *D ao22s01

*CAP
1 *847:a 1.556e-05
2 *846:o 1.556e-05

*RES
1 *847:a *846:o 0.772098
*END

*D_NET *238 0.00016622

*CONN
*I *758:a I *C 31.01 12.04 *L 0.001 *D in01s01
*I *757:o O *C 30.73 12.88 *L 0 *D ao22s01

*CAP
1 *758:a 1.556e-05
2 *757:o 6.755e-05
3 *238:2 8.311e-05

*RES
1 *238:2 *758:a 0.772098
2 *238:2 *757:o 3.75399
*END

*D_NET *419 0.0008166

*CONN
*I *860:a I *C 20.37 12.04 *L 0.001 *D in01s01
*I *718:a I *C 21.5675 11.975 *L 0.001 *D na02s01
*I *619:d I *C 23.59 11.9 *L 0.001 *D oa22f01
*I *483:o O *C 22.05 11.06 *L 0 *D ms00f80

*CAP
1 *860:a 3.892e-05
2 *718:a 2.252e-05
3 *619:d 8.562e-05
4 *483:o 0.00013267
5 *419:4 0.00014393
6 *419:5 0.00014025
7 *419:6 4.976e-05
8 *419:7 4.976e-05
9 *419:8 0.00015317

*RES
1 *419:8 *619:d 4.24654
2 *483:o *419:8 3.75399
3 *718:a *419:7 1.25133
4 *419:4 *483:o 2.54547
5 *419:6 *419:7 1.35117
6 *419:4 *419:5 4.37966
7 *419:5 *419:6 1.25133
8 *860:a *419:5 1.93025
*END

*D_NET *356 0.00017404

*CONN
*I *863:o O *C 24.15 12.88 *L 0 *D in01s01
*I *619:c I *C 23.805 11.975 *L 0.001 *D oa22f01

*CAP
1 *863:o 4.504e-05
2 *619:c 2.252e-05
3 *356:2 6.45e-05
4 *356:3 4.198e-05

*RES
1 *619:c *356:3 1.25133
2 *356:3 *356:2 0.965123
3 *356:2 *863:o 2.50266
*END

*D_NET *328 0.0002285

*CONN
*I *845:a I *C 33.53 13.16 *L 0.001 *D oa22s01
*I *844:o O *C 34.37 12.32 *L 0 *D na02s01

*CAP
1 *845:a 6.755e-05
2 *844:o 4.67e-05
3 *328:2 0.00011425

*RES
1 *328:2 *845:a 3.75399
2 *328:2 *844:o 2.31629
*END

*D_NET *48 0.0003636

*CONN
*I *580:b I *C 41.37 13.16 *L 0.0015 *D na02m02
*I *557:o O *C 42.07 11.62 *L 0 *D ms00f80
*I *523:d I *C 42.35 10.78 *L 0.001 *D ms00f80

*CAP
1 *580:b 6.755e-05
2 *557:o 9.869e-05
3 *523:d 1.556e-05
4 *48:3 9.869e-05
5 *48:4 8.311e-05

*RES
1 *48:4 *523:d 0.772098
2 *48:4 *557:o 3.75399
3 *48:3 *580:b 3.75399
4 *48:3 *557:o 1.5442
*END

*D_NET *336 0.00017072

*CONN
*I *849:a I *C 29.19 12.04 *L 0.001 *D in01s01
*I *635:o O *C 29.19 12.88 *L 0 *D ao22f01

*CAP
1 *849:a 8.9e-06
2 *635:o 3.378e-05
3 *336:2 4.268e-05
4 *336:3 4.268e-05
5 *336:4 4.268e-05

*RES
1 *336:4 *849:a 0.386049
2 *336:4 *336:3 1.877
3 *336:3 *336:2 0.386049
4 *336:2 *635:o 1.877
*END

*D_NET *330 0.0001968

*CONN
*I *846:a I *C 32.69 12.04 *L 0.001 *D ao22s01
*I *845:o O *C 33.25 12.88 *L 0 *D oa22s01

*CAP
1 *846:a 3.378e-05
2 *845:o 3.378e-05
3 *330:2 6.462e-05
4 *330:3 6.462e-05

*RES
1 *846:a *330:3 1.877
2 *330:3 *330:2 1.65538
3 *330:2 *845:o 1.877
*END

*D_NET *394 0.00016944

*CONN
*I *888:a I *C 18.69 12.04 *L 0.001 *D in01s01
*I *563:o O *C 18.69 12.88 *L 0 *D ao22f01

*CAP
1 *888:a 8.58e-06
2 *563:o 2.252e-05
3 *394:2 3.11e-05
4 *394:3 5.362e-05
5 *394:4 5.362e-05

*RES
1 *888:a *394:4 0.386049
2 *394:4 *394:3 2.50266
3 *394:2 *394:3 0.386049
4 *394:2 *563:o 1.25133
*END

*D_NET *229 0.00015736

*CONN
*I *747:a I *C 37.2325 11.975 *L 0.001 *D na02s01
*I *746:o O *C 37.03 12.88 *L 0 *D oa22s01

*CAP
1 *747:a 4.504e-05
2 *746:o 2.252e-05
3 *229:2 3.364e-05
4 *229:3 5.616e-05

*RES
1 *747:a *229:3 2.50266
2 *229:2 *229:3 0.551499
3 *229:2 *746:o 1.25133
*END

*D_NET *392 0.00011438

*CONN
*I *887:o O *C 20.23 12.88 *L 0 *D no02s01
*I *563:c I *C 19.455 13.225 *L 0.001 *D ao22f01

*CAP
1 *887:o 3.467e-05
2 *563:c 2.252e-05
3 *392:2 5.719e-05

*RES
1 *392:2 *563:c 1.25133
2 *392:2 *887:o 2.4874
*END

*D_NET *66 0.00034986

*CONN
*I *477:d I *C 15.19 13.16 *L 0.001 *D ms00f80
*I *476:o O *C 17.01 12.32 *L 0 *D ms00f80

*CAP
1 *477:d 6.226e-05
2 *476:o 4.512e-05
3 *66:2 0.00011267
4 *66:3 0.00012981

*RES
1 *477:d *66:3 3.08839
2 *66:2 *66:3 3.75399
3 *66:2 *476:o 1.9502
*END

*D_NET *355 0.00058238

*CONN
*I *719:b I *C 21.91 13.3 *L 0.0015 *D no02f02
*I *593:a I *C 22.955 13.18 *L 0.001 *D no02f01
*I *578:o O *C 25.55 13.58 *L 0 *D na02m01

*CAP
1 *719:b 4.504e-05
2 *593:a 3.378e-05
3 *578:o 6.915e-05
4 *355:3 8.549e-05
5 *355:4 9.167e-05
6 *355:5 7.498e-05
7 *355:6 0.00011543
8 *355:7 2.779e-05
9 *355:8 3.905e-05

*RES
1 *593:a *355:8 1.877
2 *355:4 *578:o 3.08839
3 *355:8 *355:7 0.197938
4 *355:4 *355:5 1.25133
5 *355:7 *355:6 1.25133
6 *355:6 *355:5 4.64121
7 *719:b *355:3 2.50266
8 *355:3 *355:6 3.75536
*END

*D_NET *335 0.00026936

*CONN
*I *848:o O *C 29.75 13.58 *L 0 *D no02s01
*I *635:c I *C 28.425 13.225 *L 0.001 *D ao22f01

*CAP
1 *848:o 2.252e-05
2 *635:c 2.252e-05
3 *335:2 6.978e-05
4 *335:3 6.978e-05
5 *335:4 4.238e-05
6 *335:5 4.238e-05

*RES
1 *635:c *335:5 1.25133
2 *335:5 *335:4 1.67333
3 *335:4 *335:3 1.25133
4 *335:3 *335:2 2.31629
5 *848:o *335:2 1.25133
*END

*D_NET *421 0.00051432

*CONN
*I *686:a I *C 26.95 13.3 *L 0.001 *D in01s01
*I *578:a I *C 25.7525 13.225 *L 0.001 *D na02m01
*I *480:o O *C 24.15 14.14 *L 0 *D ms00f80

*CAP
1 *686:a 7.78e-06
2 *578:a 2.252e-05
3 *480:o 6.802e-05
4 *421:3 9.054e-05
5 *421:4 2.741e-05
6 *421:5 2.741e-05
7 *421:6 3.241e-05
8 *421:7 8.639e-05
9 *421:8 9.902e-05
10 *421:9 5.282e-05

*RES
1 *480:o *421:3 5.14844
2 *421:9 *686:a 0.386049
3 *421:6 *421:3 1.25133
4 *421:9 *421:8 2.50266
5 *578:a *421:5 1.25133
6 *421:6 *421:7 0.390675
7 *421:7 *421:8 2.92244
8 *421:5 *421:4 0.183799
9 *421:4 *421:7 1.25133
*END

*D_NET *153 4.672e-05

*CONN
*I *615:a I *C 39.83 14.42 *L 0.001 *D in01f01
*I *582:o O *C 39.41 14.42 *L 0 *D na02m02

*CAP
1 *615:a 2.336e-05
2 *582:o 2.336e-05

*RES
1 *582:o *615:a 1.15815
*END

*D_NET *163 3.112e-05

*CONN
*I *643:o O *C 44.03 14.42 *L 0 *D ao12f01
*I *629:b I *C 44.31 14.42 *L 0.0015 *D no02m02

*CAP
1 *643:o 1.556e-05
2 *629:b 1.556e-05

*RES
1 *643:o *629:b 0.772098
*END

*D_NET *149 0.00019906

*CONN
*I *687:o O *C 27.37 15.4 *L 0 *D oa12s01
*I *480:d I *C 26.81 14.56 *L 0.001 *D ms00f80

*CAP
1 *687:o 6.755e-05
2 *480:d 3.198e-05
3 *149:2 9.953e-05

*RES
1 *480:d *149:2 1.5442
2 *149:2 *687:o 3.75399
*END

*D_NET *212 0.00018182

*CONN
*I *720:o O *C 22.33 14.84 *L 0 *D in01s01
*I *599:c I *C 22.75 15.68 *L 0.002 *D ao12f02

*CAP
1 *720:o 2.336e-05
2 *599:c 6.755e-05
3 *212:2 9.091e-05

*RES
1 *212:2 *599:c 3.75399
2 *720:o *212:2 1.15815
*END

*D_NET *159 0.00018182

*CONN
*I *639:c I *C 40.53 15.68 *L 0.002 *D oa12f02
*I *615:o O *C 40.11 14.84 *L 0 *D in01f01

*CAP
1 *639:c 6.755e-05
2 *615:o 2.336e-05
3 *159:2 9.091e-05

*RES
1 *159:2 *639:c 3.75399
2 *615:o *159:2 1.15815
*END

*D_NET *214 0.00051252

*CONN
*I *722:b I *C 19.25 15.68 *L 0.001 *D oa12s01
*I *721:c I *C 20.875 14.49 *L 0.001 *D na03s01
*I *717:o O *C 19.25 16.66 *L 0 *D in01s01

*CAP
1 *722:b 0.00012385
2 *721:c 1.289e-05
3 *717:o 7.881e-05
4 *214:3 0.00011952
5 *214:4 0.00011952
6 *214:5 5.793e-05

*RES
1 *721:c *214:5 0.579074
2 *214:5 *214:4 2.50266
3 *214:3 *214:4 6.18819
4 *214:3 *722:b 2.50266
5 *722:b *717:o 4.37966
*END

*D_NET *457 0.00033862

*CONN
*I *665:a I *C 16.31 15.68 *L 0.001 *D in01s01
*I *530:o O *C 18.13 14.84 *L 0 *D ms00f80

*CAP
1 *665:a 0.00010176
2 *530:o 6.755e-05
3 *457:2 0.00016931

*RES
1 *665:a *457:2 5.01864
2 *530:o *457:2 3.75399
*END

*D_NET *155 1.716e-05

*CONN
*I *637:o O *C 39.27 15.68 *L 0 *D oa22f02
*I *634:a I *C 39.41 15.68 *L 0.001 *D in01f01

*CAP
1 *637:o 8.58e-06
2 *634:a 8.58e-06

*RES
1 *637:o *634:a 0.386049
*END

*D_NET *211 0.00033572

*CONN
*I *600:a I *C 24.57 15.68 *L 0.001 *D in01m01
*I *599:a I *C 21.77 15.82 *L 0.002 *D ao12f02
*I *595:o O *C 23.31 15.4 *L 0 *D no02m02

*CAP
1 *600:a 2.336e-05
2 *599:a 2.252e-05
3 *595:o 9.946e-05
4 *211:3 7.472e-05
5 *211:4 6.978e-05
6 *211:5 4.588e-05

*RES
1 *211:5 *600:a 1.15815
2 *211:4 *211:5 1.25133
3 *595:o *211:4 2.31629
4 *599:a *211:3 1.25133
5 *211:3 *595:o 5.10646
*END

*D_NET *158 0.000247

*CONN
*I *639:a I *C 41.51 15.82 *L 0.002 *D oa12f02
*I *634:o O *C 39.69 16.1 *L 0 *D in01f01

*CAP
1 *639:a 1.112e-05
2 *634:o 8.986e-05
3 *158:2 0.00011238
4 *158:3 3.364e-05

*RES
1 *158:3 *639:a 0.551499
2 *158:3 *158:2 1.25133
3 *634:o *158:2 4.24654
*END

*D_NET *160 0.00016622

*CONN
*I *640:a I *C 41.65 16.94 *L 0.002 *D ao12f02
*I *639:o O *C 41.93 16.1 *L 0 *D oa12f02

*CAP
1 *640:a 6.755e-05
2 *639:o 1.556e-05
3 *160:2 8.311e-05

*RES
1 *160:2 *640:a 3.75399
2 *160:2 *639:o 0.772098
*END

*D_NET *142 0.00015068

*CONN
*I *897:o O *C 33.53 16.66 *L 0 *D oa22s01
*I *488:d I *C 33.67 15.82 *L 0.001 *D ms00f80

*CAP
1 *897:o 2.252e-05
2 *488:d 4.504e-05
3 *142:2 3.03e-05
4 *142:3 5.282e-05

*RES
1 *488:d *142:3 2.50266
2 *142:2 *142:3 0.386049
3 *142:2 *897:o 1.25133
*END

*D_NET *174 0.00021428

*CONN
*I *631:o O *C 44.31 16.8 *L 0 *D no04f02
*I *630:a I *C 45.15 15.82 *L 0.002 *D ao12f02

*CAP
1 *631:o 2.252e-05
2 *630:a 5.63e-05
3 *174:2 5.084e-05
4 *174:3 8.462e-05

*RES
1 *630:a *174:3 3.12833
2 *174:2 *174:3 2.79225
3 *174:2 *631:o 1.25133
*END

*D_NET *37 0.00014792

*CONN
*I *740:o O *C 24.43 17.08 *L 0 *D in01s01
*I *485:d I *C 25.83 17.08 *L 0.001 *D ms00f80

*CAP
1 *740:o 7.396e-05
2 *485:d 7.396e-05

*RES
1 *740:o *485:d 3.63989
*END

*D_NET *237 0.0001685

*CONN
*I *756:b I *C 35.63 17.08 *L 0.001 *D no02s01
*I *755:o O *C 35.35 17.92 *L 0 *D ao22s01

*CAP
1 *756:b 1.67e-05
2 *755:o 6.755e-05
3 *237:2 8.425e-05

*RES
1 *237:2 *756:b 0.772098
2 *237:2 *755:o 3.75399
*END

*D_NET *164 0.00023712

*CONN
*I *645:c I *C 37.31 18.06 *L 0.0015 *D na03s02
*I *620:o O *C 38.43 17.36 *L 0 *D oa12m02

*CAP
1 *645:c 5.63e-05
2 *620:o 6.226e-05
3 *164:2 0.00011856

*RES
1 *164:2 *645:c 3.12833
2 *164:2 *620:o 3.08839
*END

*D_NET *225 0.00040524

*CONN
*I *740:a I *C 24.15 17.08 *L 0.001 *D in01s01
*I *739:o O *C 21.35 17.36 *L 0 *D na02s01

*CAP
1 *740:a 5.842e-05
2 *739:o 5.328e-05
3 *225:2 7.58e-05
4 *225:3 4.588e-05
5 *225:4 6.84e-05
6 *225:5 0.00010346

*RES
1 *225:5 *740:a 2.70234
2 *225:5 *225:4 2.50266
3 *225:3 *225:4 1.15815
4 *225:2 *225:3 1.25133
5 *739:o *225:2 4.54947
*END

*D_NET *143 0.00015068

*CONN
*I *771:o O *C 32.13 17.92 *L 0 *D oa22s01
*I *487:d I *C 31.99 17.08 *L 0.001 *D ms00f80

*CAP
1 *771:o 2.252e-05
2 *487:d 4.504e-05
3 *143:2 3.03e-05
4 *143:3 5.282e-05

*RES
1 *487:d *143:3 2.50266
2 *143:3 *143:2 0.386049
3 *143:2 *771:o 1.25133
*END

*D_NET *43 0.00027522

*CONN
*I *754:a I *C 30.59 18.2 *L 0.001 *D in01s01
*I *487:o O *C 29.33 17.36 *L 0 *D ms00f80

*CAP
1 *754:a 4.67e-05
2 *487:o 2.336e-05
3 *43:2 9.091e-05
4 *43:3 0.00011425

*RES
1 *43:3 *754:a 2.31629
2 *43:2 *43:3 3.75399
3 *487:o *43:2 1.15815
*END

*D_NET *250 1.716e-05

*CONN
*I *773:b I *C 40.95 18.2 *L 0.001 *D no02f01
*I *772:o O *C 41.09 18.2 *L 0 *D ao22s01

*CAP
1 *773:b 8.58e-06
2 *772:o 8.58e-06

*RES
1 *773:b *772:o 0.386049
*END

*D_NET *408 0.00018928

*CONN
*I *896:b I *C 33.95 18.34 *L 0.001 *D no02s01
*I *895:o O *C 34.37 19.18 *L 0 *D no02s01

*CAP
1 *896:b 2.709e-05
2 *895:o 6.755e-05
3 *408:2 9.464e-05

*RES
1 *896:b *408:2 1.15815
2 *408:2 *895:o 3.75399
*END

*D_NET *197 0.00040592

*CONN
*I *694:a I *C 13.23 18.34 *L 0.001 *D in01s01
*I *693:o O *C 11.13 18.62 *L 0 *D no02s01

*CAP
1 *694:a 8.58e-06
2 *693:o 2.252e-05
3 *197:2 0.00014934
4 *197:3 0.00017186
5 *197:4 5.362e-05

*RES
1 *694:a *197:4 0.386049
2 *197:4 *197:3 2.50266
3 *197:2 *197:3 6.51645
4 *693:o *197:2 1.25133
*END

*D_NET *137 0.0001704

*CONN
*I *682:o O *C 31.85 20.44 *L 0 *D oa22s01
*I *493:d I *C 31.57 19.6 *L 0.001 *D ms00f80

*CAP
1 *682:o 6.755e-05
2 *493:d 1.765e-05
3 *137:2 8.52e-05

*RES
1 *493:d *137:2 0.772098
2 *137:2 *682:o 3.75399
*END

*D_NET *165 8.162e-05

*CONN
*I *647:o O *C 42.49 19.6 *L 0 *D no02s02
*I *574:b I *C 41.79 19.6 *L 0.0015 *D na02f02

*CAP
1 *647:o 4.081e-05
2 *574:b 4.081e-05

*RES
1 *574:b *647:o 1.73722
*END

*D_NET *230 1.556e-05

*CONN
*I *749:a I *C 19.81 20.72 *L 0.001 *D in01s01
*I *748:o O *C 19.95 20.72 *L 0 *D ao22s01

*CAP
1 *749:a 7.78e-06
2 *748:o 7.78e-06

*RES
1 *749:a *748:o 0.386049
*END

*D_NET *136 0.00029618

*CONN
*I *738:o O *C 24.85 19.88 *L 0 *D na02s01
*I *494:d I *C 23.45 20.72 *L 0.001 *D ms00f80

*CAP
1 *738:o 5.69e-05
2 *494:d 2.364e-05
3 *136:2 0.00012445
4 *136:3 9.119e-05

*RES
1 *494:d *136:3 1.15815
2 *136:2 *136:3 3.75399
3 *136:2 *738:o 2.70234
*END

*D_NET *223 0.00030556

*CONN
*I *737:a I *C 26.95 20.72 *L 0.001 *D oa12s01
*I *736:o O *C 28.07 20.72 *L 0 *D oa12s01

*CAP
1 *737:a 5.371e-05
2 *736:o 3.465e-05
3 *223:2 4.758e-05
4 *223:3 8.481e-05
5 *223:4 8.481e-05

*RES
1 *223:4 *737:a 3.35
2 *223:4 *223:3 2.37725
3 *223:2 *223:3 3.35
4 *223:2 *736:o 1.5442
*END

*D_NET *110 0.00015066

*CONN
*I *838:o O *C 11.55 21.7 *L 0 *D oa22f01
*I *533:d I *C 11.41 20.86 *L 0.001 *D ms00f80

*CAP
1 *838:o 6.755e-05
2 *533:d 7.78e-06
3 *110:2 7.533e-05

*RES
1 *533:d *110:2 0.386049
2 *110:2 *838:o 3.75399
*END

*D_NET *112 0.0001985

*CONN
*I *798:o O *C 17.15 21.7 *L 0 *D oa12s01
*I *531:d I *C 17.71 20.86 *L 0.001 *D ms00f80

*CAP
1 *798:o 6.755e-05
2 *531:d 3.17e-05
3 *112:2 9.925e-05

*RES
1 *112:2 *531:d 1.5442
2 *112:2 *798:o 3.75399
*END

*D_NET *135 0.00016622

*CONN
*I *733:o O *C 40.53 21.7 *L 0 *D in01s01
*I *495:d I *C 40.81 20.86 *L 0.001 *D ms00f80

*CAP
1 *733:o 6.755e-05
2 *495:d 1.556e-05
3 *135:2 8.311e-05

*RES
1 *135:2 *495:d 0.772098
2 *135:2 *733:o 3.75399
*END

*D_NET *134 0.00015066

*CONN
*I *606:o O *C 44.87 21.7 *L 0 *D no02s02
*I *496:d I *C 45.01 20.86 *L 0.001 *D ms00f80

*CAP
1 *606:o 6.755e-05
2 *496:d 7.78e-06
3 *134:2 7.533e-05

*RES
1 *134:2 *496:d 0.386049